version 2
run Studentverteilung-0-20171025-19:58:00-5777
attr configname Studentverteilung
attr datetime 20171025-19:58:00
attr experiment Ballwerfen
attr inifile omnetpp.ini
attr iterationvars ""
attr iterationvarsf ""
attr measurement ""
attr network Playground
attr processid 5777
attr repetition 0
attr replication #0
attr resultdir results
attr runnumber 0
attr seedset 0
param **.verteilungNumber 2

vector 9  Playground.spiderman  #v_cnt_baelle_geworfen  ETV
vector 0  Playground  #anzahl-geworfen-gesamt  ETV
vector 4  Playground.girl2  #v_cnt_baelle_verloren  ETV
vector 3  Playground.girl2  #v_cnt_baelle_geworfen  ETV
vector 8  Playground.boy2  #v_cnt_baelle_verloren  ETV
vector 7  Playground.boy2  #v_cnt_baelle_geworfen  ETV
vector 1  Playground.girl  #v_cnt_baelle_geworfen  ETV
vector 5  Playground.boy  #v_cnt_baelle_geworfen  ETV
vector 6  Playground.boy  #v_cnt_baelle_verloren  ETV
0	3	4	1
0	4	4	2
0	7	4	3
0	9	5	4
0	11	8	5
0	13	9	6
0	15	9	7
0	17	10	8
0	19	13	9
0	21	14	10
0	22	14	11
0	25	15	12
0	27	18	13
0	29	19	14
0	31	20	15
0	33	21	16
0	35	24	17
0	37	25	18
0	38	25	19
0	41	26	20
0	43	29	21
0	45	30	22
0	47	30	23
0	49	31	24
0	51	34	25
0	53	35	26
0	54	35	27
0	57	36	28
0	59	39	29
0	61	40	30
0	63	40	31
0	65	41	32
0	67	44	33
0	69	45	34
0	70	45	35
0	73	46	36
0	75	49	37
0	77	50	38
0	79	50	39
0	81	51	40
0	83	54	41
0	85	55	42
0	86	55	43
0	89	56	44
0	91	59	45
0	93	60	46
0	95	60	47
0	97	61	48
0	99	64	49
0	101	65	50
0	102	65	51
0	105	66	52
0	107	69	53
0	109	70	54
0	111	70	55
0	113	71	56
0	115	74	57
0	117	75	58
0	118	75	59
0	121	76	60
0	123	79	61
0	125	80	62
0	127	80	63
0	129	81	64
0	131	84	65
0	133	85	66
0	134	85	67
0	137	86	68
0	139	89	69
0	141	90	70
0	143	91	71
0	145	92	72
0	147	95	73
0	149	96	74
0	150	96	75
0	153	97	76
0	155	100	77
0	157	101	78
0	159	102	79
0	161	103	80
0	163	106	81
0	165	107	82
0	166	107	83
0	169	108	84
0	171	111	85
0	173	112	86
0	175	113	87
0	177	114	88
0	179	117	89
0	181	118	90
0	182	118	91
0	185	119	92
0	187	122	93
0	189	123	94
0	191	124	95
0	193	125	96
0	195	128	97
0	197	129	98
0	198	129	99
0	201	130	100
0	203	133	101
0	205	134	102
0	207	135	103
0	209	136	104
0	211	139	105
0	213	140	106
0	214	140	107
0	217	141	108
0	219	144	109
0	221	145	110
0	223	146	111
0	225	147	112
0	227	150	113
0	229	151	114
0	230	151	115
0	233	152	116
0	235	155	117
0	237	156	118
0	239	157	119
0	241	158	120
0	243	161	121
0	245	162	122
0	246	162	123
0	249	163	124
0	251	166	125
0	253	167	126
0	255	168	127
0	257	169	128
0	259	172	129
0	261	173	130
0	262	173	131
0	265	174	132
0	267	177	133
0	269	178	134
0	271	179	135
0	272	179	136
0	275	183	137
0	276	183	138
0	279	183	139
0	281	184	140
0	283	187	141
0	285	188	142
0	287	189	143
0	289	190	144
0	291	193	145
0	293	194	146
0	294	194	147
0	297	195	148
0	299	198	149
0	301	199	150
0	303	200	151
0	305	201	152
0	307	204	153
0	309	205	154
0	310	205	155
0	313	206	156
0	315	209	157
0	317	210	158
0	319	211	159
0	321	212	160
0	323	215	161
0	325	216	162
0	326	216	163
0	329	217	164
0	331	220	165
0	333	221	166
0	335	222	167
0	337	223	168
0	339	226	169
0	341	227	170
0	342	227	171
0	345	228	172
0	347	231	173
0	349	232	174
0	351	233	175
0	353	234	176
0	355	237	177
0	357	238	178
0	358	238	179
0	361	239	180
0	363	242	181
0	365	243	182
0	367	244	183
0	369	245	184
0	371	248	185
0	373	249	186
0	374	249	187
0	377	250	188
0	379	253	189
0	381	254	190
0	383	255	191
0	385	256	192
0	387	259	193
0	389	260	194
0	390	260	195
0	393	261	196
0	395	264	197
0	397	265	198
0	399	266	199
0	401	267	200
0	403	270	201
0	405	271	202
0	406	271	203
0	409	272	204
0	411	275	205
0	413	276	206
0	415	277	207
0	417	278	208
0	419	281	209
0	421	282	210
0	422	282	211
0	425	283	212
0	427	286	213
0	429	287	214
0	431	288	215
0	433	290	216
0	435	292	217
0	437	293	218
0	439	294	219
0	441	295	220
0	443	297	221
0	445	299	222
0	446	299	223
0	449	301	224
0	451	303	225
0	453	304	226
0	455	305	227
0	457	306	228
0	459	308	229
0	461	310	230
0	462	310	231
0	465	312	232
0	467	314	233
0	469	315	234
0	471	316	235
0	473	317	236
0	475	319	237
0	477	321	238
0	478	321	239
0	481	323	240
0	483	325	241
0	485	326	242
0	487	327	243
0	489	328	244
0	491	330	245
0	493	332	246
0	494	332	247
0	497	334	248
0	499	336	249
0	501	337	250
0	503	338	251
0	505	339	252
0	507	341	253
0	509	343	254
0	510	343	255
0	513	345	256
0	515	347	257
0	517	348	258
0	519	349	259
0	521	350	260
0	523	352	261
0	525	354	262
0	526	354	263
0	529	356	264
0	531	358	265
0	533	359	266
0	535	360	267
0	537	361	268
0	539	363	269
0	541	365	270
0	542	365	271
0	545	367	272
0	547	369	273
0	549	370	274
0	551	371	275
0	553	372	276
0	555	374	277
0	557	376	278
0	558	376	279
0	561	378	280
0	563	380	281
0	565	381	282
0	567	382	283
0	569	383	284
0	571	385	285
0	573	387	286
0	574	387	287
0	577	389	288
0	579	391	289
0	581	392	290
0	583	393	291
0	585	394	292
0	587	396	293
0	589	398	294
0	590	398	295
0	593	400	296
0	595	402	297
0	597	403	298
0	599	404	299
0	601	405	300
0	603	407	301
0	605	409	302
0	606	409	303
0	609	411	304
0	611	413	305
0	613	414	306
0	615	415	307
0	617	416	308
0	619	418	309
0	621	420	310
0	622	420	311
0	625	422	312
0	627	424	313
0	629	425	314
0	631	426	315
0	633	427	316
0	635	429	317
0	637	431	318
0	638	431	319
0	641	433	320
0	643	435	321
0	645	436	322
0	647	437	323
0	649	438	324
0	651	440	325
0	653	442	326
0	654	442	327
0	657	444	328
0	659	446	329
0	661	447	330
0	663	448	331
0	665	449	332
0	667	451	333
0	669	453	334
0	670	453	335
0	673	455	336
0	675	457	337
0	677	458	338
0	679	459	339
0	681	460	340
0	683	462	341
0	685	464	342
0	686	464	343
0	689	466	344
0	691	468	345
0	693	469	346
0	695	470	347
0	697	471	348
0	699	473	349
0	701	475	350
0	702	475	351
0	705	477	352
0	707	479	353
0	709	480	354
0	711	481	355
0	713	482	356
0	715	484	357
0	717	486	358
0	718	486	359
0	721	488	360
0	723	490	361
0	725	491	362
0	727	492	363
0	729	493	364
0	731	495	365
0	733	497	366
0	734	497	367
0	737	499	368
0	739	501	369
0	741	502	370
0	743	503	371
0	745	504	372
0	747	506	373
0	749	508	374
0	750	508	375
0	753	510	376
0	755	512	377
0	757	513	378
0	759	514	379
0	761	515	380
0	763	517	381
0	765	519	382
0	766	519	383
0	769	521	384
0	771	523	385
0	773	524	386
0	775	525	387
0	777	526	388
0	779	528	389
0	781	530	390
0	782	530	391
0	785	532	392
0	787	534	393
0	789	535	394
0	791	536	395
0	793	537	396
0	795	539	397
0	797	541	398
0	798	541	399
0	801	543	400
0	803	545	401
0	805	546	402
0	807	547	403
0	809	548	404
0	811	550	405
0	813	552	406
0	814	552	407
0	817	554	408
0	819	556	409
0	821	557	410
0	823	558	411
0	825	559	412
0	827	561	413
0	829	563	414
0	830	563	415
0	833	565	416
0	835	567	417
0	837	568	418
0	839	569	419
0	841	570	420
0	843	572	421
0	845	574	422
0	846	574	423
0	849	576	424
0	851	578	425
0	853	579	426
0	855	580	427
0	857	581	428
0	859	583	429
0	861	585	430
0	862	585	431
0	865	587	432
0	867	589	433
0	869	590	434
0	871	591	435
0	873	592	436
0	875	594	437
0	877	596	438
0	878	596	439
0	881	598	440
0	883	600	441
1	22	14	1
1	25	15	2
1	41	26	3
1	57	36	4
1	70	45	5
1	73	46	6
1	89	56	7
1	102	65	8
1	121	76	9
1	134	85	10
1	137	86	11
1	150	96	12
1	153	97	13
1	169	108	14
1	198	129	15
1	217	141	16
1	246	162	17
1	249	163	18
1	262	173	19
1	310	205	20
1	313	206	21
1	329	217	22
1	342	227	23
1	361	239	24
1	409	272	25
1	425	283	26
1	437	293	27
1	441	295	28
1	453	304	29
1	469	315	30
1	473	317	31
1	521	350	32
1	533	359	33
1	537	361	34
1	549	370	35
1	565	381	36
1	569	383	37
1	601	405	38
1	633	427	39
1	645	436	40
1	677	458	41
1	693	469	42
1	697	471	43
1	713	482	44
1	729	493	45
1	745	504	46
1	793	537	47
1	805	546	48
1	821	557	49
1	825	559	50
1	841	570	51
1	869	590	52
1	873	592	53
3	7	4	1
3	9	5	2
3	38	25	3
3	54	35	4
3	86	55	5
3	105	66	6
3	118	75	7
3	166	107	8
3	182	118	9
3	185	119	10
3	201	130	11
3	214	140	12
3	230	151	13
3	233	152	14
3	265	174	15
3	279	183	16
3	281	184	17
3	294	194	18
3	297	195	19
3	326	216	20
3	345	228	21
3	358	238	22
3	374	249	23
3	377	250	24
3	390	260	25
3	393	261	26
3	406	271	27
3	422	282	28
3	457	306	29
3	485	326	30
3	489	328	31
3	501	337	32
3	505	339	33
3	517	348	34
3	553	372	35
3	581	392	36
3	585	394	37
3	597	403	38
3	613	414	39
3	617	416	40
3	629	425	41
3	649	438	42
3	661	447	43
3	665	449	44
3	681	460	45
3	709	480	46
3	725	491	47
3	741	502	48
3	757	513	49
3	761	515	50
3	773	524	51
3	777	526	52
3	789	535	53
3	809	548	54
3	837	568	55
3	853	579	56
3	857	581	57
4	6	4	1
4	278	183	2
5	33	21	1
5	47	30	2
5	49	31	3
5	127	80	4
5	129	81	5
5	145	92	6
5	161	103	7
5	177	114	8
5	193	125	9
5	207	135	10
5	223	146	11
5	241	158	12
5	255	168	13
5	271	179	14
5	272	179	15
5	287	189	16
5	303	200	17
5	305	201	18
5	319	211	19
5	335	222	20
5	351	233	21
5	367	244	22
5	383	255	23
5	399	266	24
5	417	278	25
5	431	288	26
5	433	290	27
5	446	299	28
5	462	310	29
5	494	332	30
5	510	343	31
5	529	356	32
5	574	387	33
5	577	389	34
5	590	398	35
5	593	400	36
5	606	409	37
5	609	411	38
5	622	420	39
5	641	433	40
5	657	444	41
5	718	486	42
5	734	497	43
5	753	510	44
5	801	543	45
5	817	554	46
5	830	563	47
5	846	574	48
5	849	576	49
5	862	585	50
5	878	596	51
5	881	598	52
6	46	30	1
6	126	80	2
6	270	178	3
6	302	199	4
6	430	287	5
7	15	9	1
7	17	10	2
7	31	20	3
7	63	40	4
7	65	41	5
7	79	50	6
7	81	51	7
7	95	60	8
7	97	61	9
7	111	70	10
7	113	71	11
7	143	91	12
7	159	102	13
7	175	113	14
7	191	124	15
7	209	136	16
7	225	147	17
7	239	157	18
7	257	169	19
7	289	190	20
7	321	212	21
7	337	223	22
7	353	234	23
7	369	245	24
7	385	256	25
7	401	267	26
7	415	277	27
7	449	301	28
7	465	312	29
7	478	321	30
7	481	323	31
7	497	334	32
7	513	345	33
7	526	354	34
7	542	365	35
7	545	367	36
7	558	376	37
7	561	378	38
7	625	422	39
7	638	431	40
7	654	442	41
7	670	453	42
7	673	455	43
7	686	464	44
7	689	466	45
7	702	475	46
7	705	477	47
7	721	488	48
7	737	499	49
7	750	508	50
7	766	519	51
7	769	521	52
7	782	530	53
7	785	532	54
7	798	541	55
7	814	552	56
7	833	565	57
7	865	587	58
8	14	9	1
8	62	40	2
8	78	50	3
8	94	60	4
8	110	70	5
9	3	4	1
9	4	4	2
9	11	8	3
9	13	9	4
9	19	13	5
9	21	14	6
9	27	18	7
9	29	19	8
9	35	24	9
9	37	25	10
9	43	29	11
9	45	30	12
9	51	34	13
9	53	35	14
9	59	39	15
9	61	40	16
9	67	44	17
9	69	45	18
9	75	49	19
9	77	50	20
9	83	54	21
9	85	55	22
9	91	59	23
9	93	60	24
9	99	64	25
9	101	65	26
9	107	69	27
9	109	70	28
9	115	74	29
9	117	75	30
9	123	79	31
9	125	80	32
9	131	84	33
9	133	85	34
9	139	89	35
9	141	90	36
9	147	95	37
9	149	96	38
9	155	100	39
9	157	101	40
9	163	106	41
9	165	107	42
9	171	111	43
9	173	112	44
9	179	117	45
9	181	118	46
9	187	122	47
9	189	123	48
9	195	128	49
9	197	129	50
9	203	133	51
9	205	134	52
9	211	139	53
9	213	140	54
9	219	144	55
9	221	145	56
9	227	150	57
9	229	151	58
9	235	155	59
9	237	156	60
9	243	161	61
9	245	162	62
9	251	166	63
9	253	167	64
9	259	172	65
9	261	173	66
9	267	177	67
9	269	178	68
9	275	183	69
9	276	183	70
9	283	187	71
9	285	188	72
9	291	193	73
9	293	194	74
9	299	198	75
9	301	199	76
9	307	204	77
9	309	205	78
9	315	209	79
9	317	210	80
9	323	215	81
9	325	216	82
9	331	220	83
9	333	221	84
9	339	226	85
9	341	227	86
9	347	231	87
9	349	232	88
9	355	237	89
9	357	238	90
9	363	242	91
9	365	243	92
9	371	248	93
9	373	249	94
9	379	253	95
9	381	254	96
9	387	259	97
9	389	260	98
9	395	264	99
9	397	265	100
9	403	270	101
9	405	271	102
9	411	275	103
9	413	276	104
9	419	281	105
9	421	282	106
9	427	286	107
9	429	287	108
9	435	292	109
9	439	294	110
9	443	297	111
9	445	299	112
9	451	303	113
9	455	305	114
9	459	308	115
9	461	310	116
9	467	314	117
9	471	316	118
9	475	319	119
9	477	321	120
9	483	325	121
9	487	327	122
9	491	330	123
9	493	332	124
9	499	336	125
9	503	338	126
9	507	341	127
9	509	343	128
9	515	347	129
9	519	349	130
9	523	352	131
9	525	354	132
9	531	358	133
9	535	360	134
9	539	363	135
9	541	365	136
9	547	369	137
9	551	371	138
9	555	374	139
9	557	376	140
9	563	380	141
9	567	382	142
9	571	385	143
9	573	387	144
9	579	391	145
9	583	393	146
9	587	396	147
9	589	398	148
9	595	402	149
9	599	404	150
9	603	407	151
9	605	409	152
9	611	413	153
9	615	415	154
9	619	418	155
9	621	420	156
9	627	424	157
9	631	426	158
9	635	429	159
9	637	431	160
9	643	435	161
9	647	437	162
9	651	440	163
9	653	442	164
9	659	446	165
9	663	448	166
9	667	451	167
9	669	453	168
9	675	457	169
9	679	459	170
9	683	462	171
9	685	464	172
9	691	468	173
9	695	470	174
9	699	473	175
9	701	475	176
9	707	479	177
9	711	481	178
9	715	484	179
9	717	486	180
9	723	490	181
9	727	492	182
9	731	495	183
9	733	497	184
9	739	501	185
9	743	503	186
9	747	506	187
9	749	508	188
9	755	512	189
9	759	514	190
9	763	517	191
9	765	519	192
9	771	523	193
9	775	525	194
9	779	528	195
9	781	530	196
9	787	534	197
9	791	536	198
9	795	539	199
9	797	541	200
9	803	545	201
9	807	547	202
9	811	550	203
9	813	552	204
9	819	556	205
9	823	558	206
9	827	561	207
9	829	563	208
9	835	567	209
9	839	569	210
9	843	572	211
9	845	574	212
9	851	578	213
9	855	580	214
9	859	583	215
9	861	585	216
9	867	589	217
9	871	591	218
9	875	594	219
9	877	596	220
9	883	600	221
